##CIF_1.1

data_sm_global
#Used dictionaries
loop_
_audit_conform_dict_name
_audit_conform_dict_version
_audit_conform_dict_location
cif_core.dic 	2.4.2 	.
cif_pd.dic 		1.0.1 	.
cif_sm.dic 		0.1 	'redaktion.landolt-boernstein(at)springer.com'

#About this content and reference
_sm_credits_copyright
;
;

_audit_creation_method
;
;

_publ_section_references
;
;

#Phase classification
_sm_phase_labels				'FeCo2Al rt'
_chemical_name_mineral			''
_sm_chemical_compound_class		'intermetallic'
_sm_phase_prototype				'Cu2 MnAl'
_sm_pearson_symbol				'cF16'
_symmetry_Int_Tables_number		225
_sm_sample_details
;powder (determination of cell and structural parameters)
;
_sm_measurement_details
;automatic diffractometer (determination of cell and structural parameters), 
X-rays, Cu K&#x03b1; (determination of cell and structural parameters)
;
_sm_interpretation_details
;cell parameters determined and type with fixed coordinates assigned
;

data_sm_isp_SD0459244-standardized_unitcell
#Cell Parameters
_cell_length_a					5.73
_cell_length_b					5.73
_cell_length_c					5.73
_cell_angle_alpha				90
_cell_angle_beta				90
_cell_angle_gamma				90
_sm_length_ratio_ab				1.000
_sm_length_ratio_bc				1.000
_sm_length_ratio_ca				1.000
_cell_volume 					188.1
_symmetry_space_group_name_H-M	'Fm-3m'
_symmetry_Int_Tables_number		225
_cell_formula_units_Z			4
_sm_cell_transformation
;No transformation from published to standardized cell parameters necessary.
;

#Atom Coordinates
loop_
_atom_site_label
_atom_site_type_symbol
_atom_site_Wyckoff_symbol
_sm_site_symmetry
_atom_site_fract_x
_atom_site_fract_y
_atom_site_fract_z
_atom_site_occupancy
_sm_coordination_number
_sm_atomic_environment_type
Co 'Co' .8c .-43m 0.25 0.25 0.25 1 14 'rhombic dodecahedron, Fe<sub>4</sub>Al<sub>4</sub>Co<sub>6</sub>'
Al 'Al' .4b .m-3m 0.5 0.5 0.5 1 14 'rhombic dodecahedron, Co<sub>8</sub>Fe<sub>6</sub>'
Fe 'Fe' .4a .m-3m 0 0 0 1 14 'rhombic dodecahedron, Co<sub>8</sub>Al<sub>6</sub>'

_sm_atom_site_transformation
;No transformation from published to standardized cell parameters necessary.
;

